STAAD SPACE
START JOB INFORMATION
ENGINEER DATE 05-Mar-25
END JOB INFORMATION
INPUT WIDTH 79
UNIT METER KN
JOINT COORDINATES
2 0 0 5.85; 3 0 0 9.7; 4 0 0 16.6; 5 2.69 0 0; 6 2.69 0 5.85;
7 2.69 0 9.7; 8 2.69 0 16.6; 9 5.81 0 0; 10 5.81 0 5.85; 11 5.81 0 9.7;
12 5.81 0 16.6; 13 10.29 0 0; 14 10.29 0 5.85; 19 12.58 0 9.7;
20 12.58 0 16.6; 21 14.2 0 0; 22 14.2 0 5.85; 27 15.82 0 9.7;
28 15.82 0 16.6; 29 18.12 0 0; 30 18.12 0 5.85; 33 22.6 0 0;
34 22.6 0 5.85; 35 22.6 0 9.7; 36 22.6 0 16.6; 37 25.73 0 0;
38 25.73 0 5.85; 39 25.73 0 9.7; 40 25.73 0 16.6; 42 28.43 0 5.85;
43 28.43 0 9.7; 44 28.43 0 16.6; 45 0 -2.8 5.85; 46 0 -2.8 9.7;
47 0 -2.8 16.6; 48 2.69 -2.8 0; 49 2.69 -2.8 5.85; 50 2.69 -2.8 9.7;
51 2.69 -2.8 16.6; 52 5.81 -2.8 0; 53 5.81 -2.8 5.85; 54 5.81 -2.8 9.7;
55 5.81 -2.8 16.6; 56 10.29 -2.8 0; 57 10.29 -2.8 5.85;
58 12.58 -2.8 9.7; 59 12.58 -2.8 16.6; 60 14.2 -2.8 0;
61 14.2 -2.8 5.85; 62 15.82 -2.8 9.7; 63 15.82 -2.8 16.6;
64 18.12 -2.8 0; 65 18.12 -2.8 5.85; 66 22.6 -2.8 0; 67 22.6 -2.8 5.85;
68 22.6 -2.8 9.7; 69 22.6 -2.8 16.6; 70 25.73 -2.8 0;
71 25.73 -2.8 5.85; 72 25.73 -2.8 9.7; 73 25.73 -2.8 16.6;
74 28.43 -2.8 5.85; 75 28.43 -2.8 9.7; 76 28.43 -2.8 16.6;
77 0 2.8 5.85; 78 0 2.8 9.7; 79 0 2.8 16.6; 80 2.69 2.8 0;
81 2.69 2.8 5.85; 82 2.69 2.8 9.7; 83 2.69 2.8 16.6; 84 5.81 2.8 0;
85 5.81 2.8 5.85; 86 5.81 2.8 9.7; 87 5.81 2.8 16.6; 88 10.29 2.8 0;
# ... 123 like lines cut
MEMBER INCIDENCES
1 4 3; 2 3 2; 3 2 6; 4 6 5; 5 5 9; 6 9 13; 11 29 33; 12 33 37; 13 37 38;
14 38 42; 15 42 43; 16 43 44; 17 44 40; 18 36 40; 25 12 8; 26 8 4;
27 8 7; 28 7 6; 29 12 11; 30 11 10; 31 10 9; 32 6 10; 33 10 14;
38 30 34; 39 34 38; 40 3 7; 41 7 11; 48 35 39; 49 39 43; 50 40 39;
51 39 38; 52 36 35; 53 35 34; 54 34 33; 55 13 14; 56 20 19; 57 28 27;
58 30 29; 59 21 22; 60 13 21; 61 21 29; 62 30 22; 63 22 14; 64 11 19;
65 19 27; 66 27 35; 67 36 28; 68 28 20; 69 20 12; 70 2 45; 71 3 46;
72 4 47; 73 5 48; 74 6 49; 75 7 50; 76 8 51; 77 9 52; 78 10 53;
79 11 54; 80 12 55; 81 13 56; 82 14 57; 83 19 58; 84 20 59; 85 21 60;
86 22 61; 87 27 62; 88 28 63; 89 29 64; 90 30 65; 91 33 66; 92 34 67;
93 35 68; 94 36 69; 95 37 70; 96 38 71; 97 39 72; 98 40 73; 99 42 74;
100 43 75; 101 44 76; 102 2 77; 103 3 78; 104 4 79; 105 5 80; 106 6 81;
107 7 82; 108 8 83; 109 9 84; 110 10 85; 111 11 86; 112 12 87;
113 13 88; 114 14 89; 115 19 90; 116 20 91; 117 21 92; 118 22 93;
119 27 94; 120 28 95; 121 29 96; 122 30 97; 123 33 98; 124 34 99;
125 35 100; 126 36 101; 127 37 102; 128 38 103; 129 39 104; 130 40 105;
131 42 106; 132 43 107; 133 44 108; 134 79 78; 135 78 77; 136 77 81;
137 81 80; 138 80 84; 139 84 88; 140 96 98; 141 98 102; 142 102 103;
143 103 106; 144 106 107; 145 107 108; 146 108 105; 147 101 105;
148 87 83; 149 83 79; 150 83 82; 151 82 81; 152 87 86; 153 86 85;
# ... 199 like lines cut
ELEMENT INCIDENCES SHELL
1155 5 9 10 6; 1156 10 14 13 9; 1157 13 21 22 14; 1158 21 29 30 22;
1159 29 33 34 30; 1160 33 37 38 34; 1161 38 42 43 39; 1162 39 43 44 40;
1163 40 39 35 36; 1164 35 39 38 34; 1165 34 35 11 10; 1166 28 36 35 27;
1167 20 28 27 19; 1168 19 11 12 20; 1169 12 11 7 8; 1170 8 7 3 4;
1171 3 7 6 2; 1172 7 11 10 6; 1173 80 84 85 81; 1174 85 89 88 84;
1175 88 92 93 89; 1176 92 96 97 93; 1177 96 98 99 97;
1178 98 102 103 99; 1179 103 106 107 104; 1180 104 107 108 105;
1181 105 104 100 101; 1182 100 104 103 99; 1183 99 100 86 85;
1184 95 101 100 94; 1185 91 95 94 90; 1186 90 86 87 91;
1187 87 86 82 83; 1188 83 82 78 79; 1189 78 82 81 77; 1190 82 86 85 81;
1191 112 116 117 113; 1192 117 121 120 116; 1193 120 124 125 121;
1194 124 128 129 125; 1195 128 130 131 129; 1196 130 134 135 131;
1197 135 138 139 136; 1198 136 139 140 137; 1199 137 136 132 133;
1200 132 136 135 131; 1201 131 132 118 117; 1202 127 133 132 126;
1203 123 127 126 122; 1204 122 118 119 123; 1205 119 118 114 115;
1206 115 114 110 111; 1207 110 114 113 109; 1208 114 118 117 113;
1209 144 148 149 145; 1210 149 153 152 148; 1211 152 156 157 153;
1212 156 160 161 157; 1213 160 162 163 161; 1214 162 166 167 163;
1215 167 170 171 168; 1216 168 171 172 169; 1217 169 168 164 165;
1218 164 168 167 163; 1219 163 164 150 149; 1220 159 165 164 158;
# ... 62 like lines cut
ELEMENT PROPERTY
1155 TO 1406 THICKNESS 0.15
DEFINE MATERIAL START
ISOTROPIC CONCRETE
E 2.17185e+007
POISSON 0.17
DENSITY 23.5616
ALPHA 1e-005
DAMP 0.05
TYPE CONCRETE
STRENGTH FCU 27579
END DEFINE MATERIAL
MEMBER PROPERTY
70 TO 133 183 TO 214 264 TO 295 345 TO 376 426 TO 457 507 TO 538 588 -
589 TO 619 669 TO 700 750 TO 781 831 TO 862 912 TO 943 993 TO 1024 -
1074 TO 1105 PRIS YD 0.5 ZD 0.5
1 TO 6 11 TO 18 25 TO 33 38 TO 41 48 TO 69 134 TO 182 215 TO 263 296 -
297 TO 344 377 TO 425 458 TO 506 539 TO 587 620 TO 668 701 TO 749 782 -
783 TO 830 863 TO 911 944 TO 992 1025 TO 1073 1106 TO 1153 -
1154 PRIS YD 0.5 ZD 0.3
CONSTANTS
MATERIAL CONCRETE ALL
SUPPORTS
45 TO 76 FIXED
DEFINE 1893 LOAD
ZONE 0.1 RF 5 I 1 SS 2 ST 1 DM 0.05
MEMBER WEIGHT
1 TO 6 11 TO 18 25 TO 33 38 TO 41 48 TO 69 134 TO 182 215 TO 263 296 -
297 TO 344 377 TO 425 458 TO 506 539 TO 587 620 TO 668 701 TO 749 782 -
783 TO 830 863 TO 911 944 TO 992 1025 TO 1073 1106 TO 1154 UNI 19.6
FLOOR WEIGHT
YRANGE 2.8 43.6 FLOAD -2
DEFINE WIND LOAD
TYPE 1 WIND 1
<! STAAD PRO GENERATED DATA DO NOT MODIFY !!!
ASCE-7-2010:PARAMS 44.000 m/sec 0 1 2 0 0.000 ft 0.000 ft 0.000 ft 1 -
1 43.400 m 16.570 m 28.430 m 2.000 0.010 0 -
0 0 0 0 1.093 1.000 1.000 0.850 0 -
0 0 0 0.835 0.800 -0.550
!> END GENERATED DATA BLOCK
INT 0.994522 0.994522 1.0544 1.09907 1.13542 1.16641 1.19363 1.218 -
 1.24017 1.26054 1.27945 1.29711 1.3137 1.32938 1.34425 HEIG  0  4.572 -
 7.55877  10.5455  13.5323  16.5191  19.5058  22.4926  25.4794  28.4662 -
 31.4529  34.4397  37.4265  40.4132  43.4
EXP 1 JOINT 2 TO 14 19 TO 22 27 TO 30 33 TO 40 42 TO 492
LOAD 1 LOADTYPE Seismic  TITLE EQ+X
1893 LOAD X 1
LOAD 2 LOADTYPE Seismic  TITLE EQ-X
1893 LOAD X -1
LOAD 3 LOADTYPE Seismic  TITLE EQ+Z
1893 LOAD Z 1
LOAD 4 LOADTYPE Seismic  TITLE EQ-Z
1893 LOAD Z -1
LOAD 5 LOADTYPE Wind  TITLE W+X
WIND LOAD X 1 TYPE 1
LOAD 6 LOADTYPE Wind  TITLE W-X
WIND LOAD X -1 TYPE 1
LOAD 7 LOADTYPE Wind  TITLE W+Z
WIND LOAD Z 1 TYPE 1
LOAD 8 LOADTYPE Wind  TITLE W-Z
WIND LOAD Z -1 TYPE 1
LOAD 9 LOADTYPE Dead  TITLE DL
SELFWEIGHT Y -1 LIST ALL
FLOOR LOAD
YRANGE 0 43.6 FLOAD -2 GY
MEMBER LOAD
1 TO 6 11 TO 18 25 TO 33 38 TO 41 48 TO 69 134 TO 182 215 TO 263 296 -
297 TO 344 377 TO 425 458 TO 506 539 TO 587 620 TO 668 701 TO 749 782 -
783 TO 830 863 TO 911 944 TO 992 1025 TO 1073 UNI GY -19.6
LOAD 10 LOADTYPE Live  TITLE LL
FLOOR LOAD
YRANGE 0 43.6 FLOAD -3.5 GY
LOAD COMB 11 Generated Indian Code Genral_Structures 1
9 1.5 10 1.5 
LOAD COMB 12 Generated Indian Code Genral_Structures 2
9 1.2 10 1.2 5 1.2 
LOAD COMB 13 Generated Indian Code Genral_Structures 3
9 1.2 10 1.2 6 1.2 
LOAD COMB 14 Generated Indian Code Genral_Structures 4
9 1.2 10 1.2 7 1.2 
LOAD COMB 15 Generated Indian Code Genral_Structures 5
9 1.2 10 1.2 8 1.2 
LOAD COMB 16 Generated Indian Code Genral_Structures 6
9 1.2 10 1.2 5 -1.2 
LOAD COMB 17 Generated Indian Code Genral_Structures 7
9 1.2 10 1.2 6 -1.2 
LOAD COMB 18 Generated Indian Code Genral_Structures 8
9 1.2 10 1.2 7 -1.2 
LOAD COMB 19 Generated Indian Code Genral_Structures 9
9 1.2 10 1.2 8 -1.2 
LOAD COMB 20 Generated Indian Code Genral_Structures 10
9 1.2 10 1.2 1 1.2 
LOAD COMB 21 Generated Indian Code Genral_Structures 11
9 1.2 10 1.2 2 1.2 
LOAD COMB 22 Generated Indian Code Genral_Structures 12
9 1.2 10 1.2 3 1.2 
LOAD COMB 23 Generated Indian Code Genral_Structures 13
9 1.2 10 1.2 4 1.2 
LOAD COMB 24 Generated Indian Code Genral_Structures 14
9 1.2 10 1.2 1 -1.2 
LOAD COMB 25 Generated Indian Code Genral_Structures 15
9 1.2 10 1.2 2 -1.2 
LOAD COMB 26 Generated Indian Code Genral_Structures 16
9 1.2 10 1.2 3 -1.2 
LOAD COMB 27 Generated Indian Code Genral_Structures 17
9 1.2 10 1.2 4 -1.2 
LOAD COMB 28 Generated Indian Code Genral_Structures 18
9 1.5 5 1.5 
LOAD COMB 29 Generated Indian Code Genral_Structures 19
9 1.5 6 1.5 
LOAD COMB 30 Generated Indian Code Genral_Structures 20
9 1.5 7 1.5 
# ... 42 like lines cut
PERFORM ANALYSIS
START CONCRETE DESIGN
CODE INDIAN
FC 30000 ALL
FYMAIN 500000 ALL
FYSEC 500000 ALL
MAXMAIN 20 ALL
MAXSEC 16 ALL
DESIGN BEAM 1 TO 6 11 TO 18 25 TO 33 38 TO 41 48 TO 69 134 TO 182 215 -
216 TO 263 296 TO 344 377 TO 425 458 TO 506 539 TO 587 620 TO 668 701 -
702 TO 749 782 TO 830 863 TO 911 944 TO 992 1025 TO 1073 1106 TO 1154
DESIGN COLUMN 70 TO 133 183 TO 214 264 TO 295 345 TO 376 426 TO 457 -
507 TO 538 588 TO 619 669 TO 700 750 TO 781 831 TO 862 912 TO 943 -
993 TO 1024 1074 TO 1105
DESIGN ELEMENT 1155 TO 1406
CONCRETE TAKE
END CONCRETE DESIGN
PERFORM ANALYSIS
FINISH
